Version 4
SHEET 1 2420 800
WIRE 64 -688 0 -688
WIRE 272 -688 128 -688
WIRE 528 -688 352 -688
WIRE 528 -624 528 -688
WIRE 592 -624 528 -624
WIRE 640 -624 592 -624
WIRE 272 -576 240 -576
WIRE 528 -576 528 -624
WIRE 528 -576 352 -576
WIRE 1680 -496 1680 -528
WIRE 592 -464 592 -624
WIRE 1536 -464 1536 -528
WIRE 544 -448 352 -448
WIRE 352 -416 352 -448
WIRE 1680 -400 1680 -432
WIRE 544 -352 544 -400
WIRE 592 -352 592 -384
WIRE 1536 -336 1536 -384
WIRE 1424 -320 1424 -384
WIRE 1472 -320 1424 -320
WIRE 352 -304 352 -336
WIRE 1680 -288 1680 -320
WIRE 1472 -240 1472 -288
WIRE 720 -128 640 -128
WIRE -16 -112 -224 -112
WIRE 240 -112 240 -576
WIRE 240 -112 64 -112
WIRE 544 -112 240 -112
WIRE 672 -96 640 -96
WIRE 720 -96 720 -128
WIRE 384 0 352 0
WIRE 496 0 464 0
WIRE 672 0 672 -96
WIRE 672 0 496 0
WIRE 496 32 496 0
WIRE 672 48 672 0
WIRE 496 128 496 96
WIRE 240 240 240 -112
WIRE 1984 256 1984 224
WIRE 1088 272 1088 48
WIRE -224 288 -224 -112
WIRE 224 288 -224 288
WIRE 848 288 848 240
WIRE 848 288 320 288
WIRE 1040 288 848 288
WIRE 1040 336 976 336
WIRE 976 368 976 336
WIRE 1920 368 1920 48
WIRE 1984 368 1984 336
WIRE 1984 368 1920 368
WIRE 1920 400 1920 368
WIRE 1872 416 1664 416
WIRE 1088 432 1088 352
WIRE -224 448 -224 288
WIRE 1424 448 1424 48
WIRE 1664 448 1664 416
WIRE 2224 448 2224 384
WIRE 2336 448 2336 384
WIRE 1872 512 1872 464
WIRE 1920 512 1920 480
WIRE 1088 560 1088 512
WIRE 1424 560 1424 528
WIRE 1664 560 1664 528
WIRE 2224 560 2224 528
WIRE 2336 560 2336 528
WIRE -224 592 -224 528
FLAG 496 128 0
FLAG -224 592 0
FLAG 1088 560 0
FLAG 976 368 0
FLAG 1088 48 PI_3V3
FLAG 352 0 PI_3V3
FLAG 0 -688 PI_5V
FLAG 1536 -528 PI_POWER_BTN
FLAG 640 -624 POWER_BTN
FLAG 1424 -384 POWER_BTN
FLAG 592 -352 0
FLAG 544 -352 0
FLAG 352 -304 0
FLAG 720 -96 0
FLAG 672 48 PI_SHUTDOWN
FLAG 2336 560 0
FLAG 2336 384 PI_3V3
FLAG 2224 560 0
FLAG 2224 384 PI_5V
FLAG 1472 -240 0
FLAG 1664 560 0
FLAG 1920 512 0
FLAG 1872 512 0
FLAG 1920 48 PI_SHUTDOWN
FLAG 1680 -528 PI_3V3
FLAG 1680 -288 PI_POWER_BTN
FLAG 1984 224 PI_3V3
FLAG 1424 560 0
FLAG 1424 48 PI_POWER_BTN
FLAG 848 240 PI_5V
SYMBOL res 80 -128 R90
WINDOW 0 0 56 VBottom 2
WINDOW 3 32 56 VTop 2
SYMATTR InstName R1
SYMATTR Value 100K
SYMATTR SpiceLine tol=1 pwr=0.1
SYMBOL res 480 -16 R90
WINDOW 0 0 56 VBottom 2
WINDOW 3 32 56 VTop 2
SYMATTR InstName R2
SYMATTR Value 10Meg
SYMATTR SpiceLine tol=1 pwr=0.1
SYMBOL res 368 -704 R90
WINDOW 0 0 56 VBottom 2
WINDOW 3 32 56 VTop 2
SYMATTR InstName R3
SYMATTR Value 1K
SYMBOL res 368 -592 R90
WINDOW 0 0 56 VBottom 2
WINDOW 3 32 56 VTop 2
SYMATTR InstName R4
SYMATTR Value 10k
SYMBOL cap 480 32 R0
SYMATTR InstName C1
SYMATTR Value 4.7µ
SYMBOL voltage -224 432 R0
WINDOW 123 0 0 Left 0
WINDOW 39 0 0 Left 0
SYMATTR InstName V1
SYMATTR Value 5
SYMBOL schottky 64 -672 R270
WINDOW 0 32 32 VTop 2
WINDOW 3 0 32 VBottom 2
SYMATTR InstName D1
SYMATTR Value MBR0530L
SYMATTR Description Diode
SYMATTR Type diode
SYMBOL sw 1088 368 M180
SYMATTR InstName S1
SYMATTR Value ""
SYMATTR SpiceModel MYSWITCH
SYMBOL voltage 1088 416 R0
WINDOW 123 0 0 Left 0
WINDOW 39 0 0 Left 0
SYMATTR InstName V2
SYMATTR Value 3.3
SYMBOL res 1520 -480 R0
SYMATTR InstName R5
SYMATTR Value 1K
SYMBOL sw 592 -368 M180
SYMATTR InstName S3
SYMATTR Value ""
SYMATTR SpiceModel MYSWITCH
SYMBOL voltage 352 -432 R0
WINDOW 123 0 0 Left 0
WINDOW 39 0 0 Left 0
WINDOW 3 87 127 Left 2
SYMATTR InstName V3
SYMATTR Value PWL(0 0 9.0 0 10 1 10.5 1 10.6 0 19.9 0 20 1 20.5 1 20.6 0 29.9 0 30 1 30.5 1 30.6 0)
SYMBOL AutoGenerated\\BSS138_FAI 592 -112 M180
SYMATTR InstName U2
SYMBOL res 2208 432 R0
SYMATTR InstName R6
SYMATTR Value 50
SYMBOL res 2320 432 R0
SYMATTR InstName R7
SYMATTR Value 33
SYMBOL Digital\\buf 1472 -384 R0
WINDOW 3 10 109 Left 2
WINDOW 0 10 14 Left 2
SYMATTR Value Vhigh=3.3
SYMATTR InstName A1
SYMBOL voltage 1664 432 R0
WINDOW 123 0 0 Left 0
WINDOW 39 0 0 Left 0
WINDOW 3 50 127 Left 2
SYMATTR InstName V4
SYMATTR Value PWL(0 0 22.9 0 23 1 23.5 1 23.6 0)
SYMBOL sw 1920 496 M180
SYMATTR InstName S2
SYMATTR Value ""
SYMATTR SpiceModel MYSWITCH
SYMBOL Contrib\\Toshiba\\pmos\\SSM3J328R 320 240 R90
WINDOW 0 73 28 VRight 2
WINDOW 38 117 -24 VRight 2
SYMATTR InstName U1
SYMBOL LED 1664 -496 R0
SYMATTR InstName D2
SYMBOL res 1664 -416 R0
SYMATTR InstName R8
SYMATTR Value 1k
SYMBOL res 1968 240 R0
SYMATTR InstName R9
SYMATTR Value 10k
SYMBOL res 1408 432 R0
SYMATTR InstName R10
SYMATTR Value 10k
TEXT 480 -200 Left 2 !.include BSS138.lib
TEXT -752 -528 Left 2 !.tran 40 startup
TEXT -752 -496 Left 2 !.model MYSWITCH SW(Ron=0.1 Roff=10Meg Vt=0.5)
TEXT -480 360 Left 2 ;External Power Supply
TEXT 928 96 Left 2 ;Raspberry Pi
TEXT 952 608 Left 2 ;3.3V Voltage Regulator
TEXT 1592 608 Left 2 ;SW-Controlled Shutdown (after Shutdown Request)
TEXT 2256 608 Left 2 ;Load
TEXT 1256 608 Left 2 ;Shutdown Request (Input)
TEXT 312 -496 Left 2 ;On-Off-Switch (Key)
TEXT 648 -112 Left 2 ;G
TEXT 648 -144 Left 2 ;S
TEXT 504 -136 Left 2 ;D
TEXT -40 -632 Left 2 ;(actually NSR0530HT1G)
RECTANGLE Normal -128 640 -496 384 2
RECTANGLE Normal 2416 640 928 112 2
RECTANGLE Normal 1360 -256 304 -464 2
